%chk=5a-sub1.R.ts1.Cf1.chk
#PBEh1PBE/genecp opt=(noeigen,readfc,ts,maxcyc=1000) scrf=(smd,solvent=Acetone)

step 3 (attempt 2) cycle 1

0 1
 H      0.654055      0.297088     -1.628128
 H      0.693931     -0.173980      1.767987
 H     -0.407000     -0.315237      4.059617
 C      0.374662      0.404415      4.305844
 C      2.236928     -1.180505      3.555211
 C      1.623255      0.231912      3.484860
 O      2.395480      1.147956      3.213601
 H     -0.009091      1.419404      4.196314
 H      0.653825      0.258364      5.359557
 N      2.253103      1.419230      0.240675
 N      2.262267     -1.244078     -0.267343
 C      3.572755      0.758666      0.048454
 H      2.166321      2.200651     -0.406111
 H      2.256024      1.820129      1.179896
 C      3.372575     -0.464094     -0.855022
 H      2.564264     -1.661015      0.611498
 H      2.042990     -2.020438     -0.890452
 H      3.875374      0.397515      1.036086
 C      4.629755      1.712413     -0.461989
 C      4.635164     -1.270129     -1.078708
 H      3.009955     -0.115614     -1.827288
 F      3.189990     -1.371056      2.629935
 F      1.356881     -2.182627      3.450996
 F      2.834055     -1.306648      4.757920
 C      4.499645      2.324490     -1.715120
 C      5.755948      2.001624      0.312624
 C      6.591389      3.488448     -1.396985
 C      6.731592      2.882960     -0.150354
 C      5.471277      3.207109     -2.178334
 H      3.634103      2.109570     -2.338965
 H      5.355009      3.674204     -3.152911
 H      7.350768      4.176384     -1.759294
 H      7.601575      3.096559      0.465161
 H      5.869851      1.530220      1.286365
 C      5.137152     -1.417699     -2.375243
 C      5.321623     -1.880172     -0.021741
 C      6.968421     -2.759514     -1.556293
 C      6.477075     -2.619980     -0.258895
 C      6.295130     -2.155072     -2.615103
 H      4.615015     -0.947306     -3.205838
 H      6.669072     -2.257196     -3.630569
 H      7.871226     -3.336243     -1.739487
 H      6.996711     -3.087113      0.573744
 H      4.956675     -1.780690      0.997037
Ru      0.546360      0.069609      0.007631
 P     -0.977904     -1.552067     -0.483381
 P     -1.080815      1.677746      0.075169
 C     -0.161630     -2.931690     -1.429037
 C     -1.906412     -2.527932      0.788486
 C     -2.402148     -1.071177     -1.581265
 C     -0.678992      3.270038      0.962426
 C     -1.689986      2.421461     -1.513583
 C     -2.640489      1.145291      0.926472
 C     -3.426044     -0.250410     -1.074072
 C     -2.458079     -1.499167     -2.915022
 H     -1.691842     -2.153112     -3.312926
 C     -3.511159      0.204559      0.345434
 C     -2.851954      1.563581      2.248289
 H     -2.186307      2.291319      2.699704
 C     -4.481550      0.133316     -1.935414
 O     -5.421579      0.940200     -1.393492
 C     -3.505743     -1.115002     -3.740548
 H     -3.537471     -1.461175     -4.770530
 C     -4.576956     -0.306477      1.124917
 O     -5.367919     -1.216137      0.517110
 C     -3.907544      1.054562      2.991206
 H     -4.062514      1.390110      4.013583
 C     -4.521360     -0.296053     -3.261262
 H     -5.332663     -0.001489     -3.917542
 C     -4.772975      0.115629      2.440023
 H     -5.591794     -0.278096      3.031908
 C     -0.116826     -4.248414     -0.955224
 C      0.548541     -2.631210     -2.604783
 C      1.273320     -4.925621     -2.815553
 C      1.247770     -3.617072     -3.296362
 C      0.594755     -5.233918     -1.640633
 H     -0.636996     -4.519004     -0.042234
 H      0.614230     -6.247661     -1.248954
 H      1.824292     -5.695217     -3.349540
 H      1.780729     -3.357959     -4.207606
 H      0.562465     -1.608570     -2.973550
 C     -2.949796     -3.392133      0.428420
 C     -1.533283     -2.445468      2.130104
 C     -3.212214     -4.070663      2.732562
 C     -2.181357     -3.209580      3.100079
 C     -3.594354     -4.161011      1.393140
 H     -3.256486     -3.471542     -0.611302
 H     -4.398883     -4.830960      1.100192
 H     -3.718163     -4.670689      3.484784
 H     -1.878879     -3.131488      4.141548
 H     -0.729049     -1.770405      2.403939
 C      0.230476      3.224017      2.023777
 C     -1.240923      4.511804      0.634052
 C      0.003042      5.595393      2.403874
 C     -0.903979      5.660019      1.348060
 C      0.570535      4.369757      2.740819
 H      0.672974      2.275777      2.303311
 H      1.280945      4.298105      3.560531
 H      0.265512      6.493721      2.956602
 H     -1.354315      6.610670      1.073765
 H     -1.947289      4.597125     -0.184991
 C     -0.799968      2.588139     -2.579842
 C     -2.983844      2.943250     -1.637784
 C     -2.483718      3.757602     -3.856955
 C     -3.379878      3.600076     -2.801254
 C     -1.191105      3.251578     -3.741714
 H      0.205824      2.184910     -2.500232
 H     -0.483345      3.369305     -4.558544
 H     -2.791360      4.271870     -4.763786
 H     -4.390774      3.992343     -2.879331
 H     -3.694707      2.827716     -0.824958
 C     -6.542153      1.288313     -2.182705
 H     -6.253623      1.864895     -3.070246
 H     -7.105209      0.399383     -2.493293
 H     -7.175408      1.908807     -1.545414
 C     -6.437246     -1.774971      1.253734
 H     -6.083716     -2.292648      2.153560
 H     -7.171925     -1.011476      1.538809
 H     -6.912460     -2.498773      0.588799

F H O N C P 0
6-31G*
****
Ru 0
SDD
****

Ru 0
SDD



