34
	Energy:      35.2435443
C         -2.29078        1.51651       -0.24805
C         -0.82386        1.27703        0.21277
C          0.18918        2.32763       -0.29488
H         -0.78179        1.23351        1.32358
H         -0.52737        0.28846       -0.18721
C          1.65834        2.07474        0.14946
H          0.14031        2.38658       -1.40460
H         -0.10375        3.31063        0.12288
C          2.49519        3.32093       -0.26721
C          2.21402        0.75351       -0.44970
H          1.66653        2.00198        1.25996
C         -3.13232        0.29012        0.21151
C         -2.84669        2.86019        0.28841
H         -2.29406        1.54759       -1.36062
O         -4.12016        3.12116       -0.22989
H         -4.43894        3.94853        0.21640
H         -2.19643        3.69642       -0.03559
H         -2.88057        2.82605        1.40081
C         -4.57393        0.24807       -0.29852
H         -5.04064       -0.71042        0.01289
H         -4.59279        0.30555       -1.40744
H         -5.19217        1.05657        0.13490
H         -3.13858        0.22546        1.32177
H         -2.64495       -0.62972       -0.18105
N          3.87715        3.30011        0.20792
H          4.46287        2.64474       -0.35467
H          3.91254        3.06196        1.22566
H          2.01971        4.22615        0.16955
H          2.48821        3.44385       -1.37267
N          3.54703        0.44078        0.05459
H          3.87518       -0.44671       -0.39074
H          3.49614        0.28458        1.08768
H          2.24397        0.83197       -1.55853
H          1.56366       -0.10298       -0.18448
