#p oniom(b3lyp/genecp:amber=softfirst)=embedcharge  scrf=(oniompcm=x,solvent=water)

 JA0541940 oniom with full params g16

0 1
Pd-M1-0.031338    0.258156     -1.830622     -0.544556 H
O-Y1--0.380776    0.887025      0.155286     -0.671526 H
O-o--0.345674     2.957264      0.142397      0.189301 H
O-o--0.228267     0.882628      6.963226     -1.025417 H
O-o--0.220745     2.956777      7.018281     -0.453401 H
O-Y2--0.376012   -1.425757     -1.209946      0.424659 H
O-o--0.304027    -2.010705      0.565637     -0.869044 H
O-o--0.226295    -5.624661      2.872565      4.549262 H
O-o--0.223433    -5.971990      0.823897      5.153572 H
N-Y3--0.228137    2.014019     -2.571761     -1.209403 H
N-Y4--0.235079   -0.622580     -1.702207     -2.488480 H
N-no-0.081346     1.922410      6.424303     -0.677519 H
N-no-0.081350    -5.446728      1.661327      4.431827 H
C-c2--0.197199    2.392537     -2.564039     -2.505513 H
H-h4-0.322608     1.817446     -2.189854     -3.161243 H
C-c2--0.272339    3.605953     -3.093976     -2.889838 H
H-ha-0.311492     3.867030     -3.085691     -3.803904 H
C-c2--0.240717    4.439364     -3.641037     -1.923068 H
H-ha-0.314508     5.266646     -4.033756     -2.176307 H
C-c2--0.356532    4.067350     -3.613811     -0.595588 H
H-ha-0.312994     4.638354     -3.976970      0.072752 H
C-c2-0.277773     2.841629     -3.048495     -0.238078 H
C-c2-0.298952     2.346655     -2.863007      1.124250 H
C-c2--0.448042    3.037190     -3.233445      2.283585 H
H-ha-0.299934     3.881384     -3.661504      2.211471 H
C-c2--0.290065    2.486550     -2.968035      3.519374 H
H-ha-0.297104     2.955054     -3.219097      4.306626 H
C-c2--0.285012    1.255856     -2.334487      3.622632 H
H-ha-0.306837     0.887341     -2.156386      4.479352 H
C-c2--0.428953    0.554376     -1.959900      2.476432 H
H-ha-0.349234    -0.289506     -1.528614      2.545013 H
C-c1-0.153406     1.109641     -2.225591      1.243925 H
C-c2--0.249483   -0.590184     -0.640266     -3.315099 H
H-h4-0.371194    -0.146920      0.153607     -3.039649 H
C-c2--0.266227   -1.197280     -0.684685     -4.563688 H
H-ha-0.314678    -1.164104      0.067189     -5.142976 H
C-c2--0.252075   -1.852374     -1.841440     -4.951578 H
H-ha-0.312094    -2.281148     -1.885776     -5.799759 H
C-c2--0.379645   -1.882089     -2.932999     -4.102731 H
H-ha-0.307919    -2.329136     -3.730769     -4.359184 H
C-c2-0.188664    -1.242212     -2.844324     -2.858074 H
C-c2-0.255278    -1.207939     -3.918299     -1.856043 H
C-c2--0.439192   -1.817726     -5.161954     -2.049701 H
H-ha-0.300371    -2.266685     -5.344213     -2.866085 H
C-c2--0.298368   -1.770101     -6.126700     -1.060124 H
H-ha-0.301029    -2.191616     -6.968167     -1.195981 H
C-c2--0.312702   -1.109222     -5.865293      0.131025 H
H-ha-0.305421    -1.073405     -6.533267      0.806448 H
C-c2--0.396017   -0.502373     -4.638433      0.339491 H
H-ha-0.338065    -0.057676     -4.459930      1.160426 H
C-c1-0.203372    -0.546228     -3.672177     -0.650800 H
C-c-0.237125      1.953544      0.686973     -0.283681 H
C-ca-0.241683     1.936377      2.205942     -0.396449 H
C-ca--0.378438    0.735069      2.889081     -0.631005 H
H-ha-0.375763    -0.072148      2.400039     -0.733467 H
C-ca--0.413382    0.717067      4.274286     -0.717934 H
H-ha-0.348555    -0.093444      4.741972     -0.875261 H
C-ca-0.294176     1.914217      4.954330     -0.564300 H
C-ca--0.403284    3.116380      4.306711     -0.334973 H
H-ha-0.344050     3.922231      4.800416     -0.240289 H
C-ca--0.405122    3.119949      2.925774     -0.242874 H
H-ha-0.347650     3.934329      2.465381     -0.074390 H
C-c-0.269523     -2.051029     -0.096617      0.157795 H
C-ca-0.276535    -2.943557      0.346410      1.299577 H
C-ca--0.381969   -3.467362     -0.572855      2.211392 H
H-ha-0.346861    -3.248567     -1.492458      2.131545 H
C-ca--0.408646   -4.302495     -0.149573      3.231088 H
H-ha-0.347815    -4.679448     -0.772157      3.841322 H
C-ca-0.308276    -4.576896      1.202958      3.336549 H
C-ca--0.402304   -4.070407      2.143241      2.454657 H
H-ha-0.350329    -4.276557      3.066128      2.552148 H
C-ca--0.389842   -3.251123      1.699646      1.424653 H
H-ha-0.338697    -2.896785      2.323460      0.801269 H
C-c3--0.407317       6.040704      0.007857      0.264571 L
H-h3-0.278257       4.952884      0.082218      0.304678 L
Cl-cl-0.043020      6.737007      1.550031      0.844314 L
Cl-cl-0.043021      6.551478     -1.353073      1.318184 L
Cl-cl-0.043021      6.507952     -0.297483     -1.439601 L
C-c3--0.407317       8.232315     -6.211510     -0.707060 L
H-h3-0.278257       9.302822     -6.374525     -0.627481 L
Cl-cl-0.043020      7.422991     -7.380789      0.374106 L
Cl-cl-0.043021      7.901812     -4.527103     -0.209528 L
Cl-cl-0.043021      7.773422     -6.483229     -2.416086 L
C-c3--0.407317      -9.068698     -1.813130      2.409807 L
H-h3-0.278257     -10.069529     -1.900536      2.821704 L
Cl-cl-0.043020     -8.062186     -0.920557      3.571119 L
Cl-cl-0.043021     -8.454248     -3.480830      2.152553 L
Cl-cl-0.043021     -9.206153     -0.941428      0.850172 L
C-c3--0.407317       1.813612     10.176062     -1.144781 L
H-h3-0.278257       1.710907      9.100810     -1.029659 L
Cl-cl-0.043020      2.953246     10.474472     -2.493735 L
Cl-cl-0.043021      0.195889     10.847618     -1.510565 L
Cl-cl-0.043021      2.451281     10.835130      0.392064 L
C-c3--0.407317       3.553798      1.613590      4.833900 L
H-h3-0.278257       4.326498      2.375890      4.806883 L
Cl-cl-0.043020      2.086952      2.366203      5.533697 L
Cl-cl-0.043021      3.270833      1.047785      3.172041 L
Cl-cl-0.043021      4.158172      0.290949      5.886787 L
C-c3--0.407317      -3.468257      2.485975     -2.800501 L
H-h3-0.278257      -3.066961      1.783651     -2.070988 L
Cl-cl-0.043020     -2.093225      3.085446     -3.787699 L
Cl-cl-0.043021     -4.654776      1.619324     -3.825669 L
Cl-cl-0.043021     -4.245191      3.829670     -1.913365 L
C-c3--0.407317      -6.669581     -3.005030     -1.506201 L
H-h3-0.278257      -7.211251     -2.785918     -0.590727 L
Cl-cl-0.043020     -6.132572     -1.456226     -2.211052 L
Cl-cl-0.043021     -5.271090     -4.037495     -1.074827 L
Cl-cl-0.043021     -7.791344     -3.866729     -2.602856 L

@JA0541940.prm
H C N O Cl 0
6-31G(d)
****
Pd 0
Lanl2dz
****

Pd 0
lanl2dz



