17
	Energy:       2.5318483
C         -7.23548        0.54293        0.03645
C         -5.71701        0.39645       -0.00006
C         -5.02834        1.76597        0.01011
C         -3.50339        1.61384       -0.02667
C         -2.81341        2.97485       -0.01667
H         -7.59025        1.10926       -0.85096
H         -7.54998        1.07558        0.95920
H         -7.70678       -0.46244        0.02823
H         -5.43232       -0.15824       -0.92075
H         -5.39212       -0.19187        0.88579
H         -5.32014        2.31672        0.93169
H         -5.36039        2.35039       -0.87643
H         -3.20443        1.06702       -0.94755
H         -3.16420        1.03335        0.85898
H         -3.11806        3.56879       -0.90466
H         -1.71229        2.83423       -0.04382
H         -3.07775        3.53504        0.90551
