9
    Energy:      -0.7712218
    Pt         0.68689       -0.39545        0.00000
    C         -1.38021       -0.32658        0.00000
    C          2.75391       -0.46401        0.00000
    C          0.62003       -2.46257        0.00000
    C          0.75367        1.67168        0.00000
    O          0.78956        2.79912        0.00000
    O         -2.50755       -0.28841        0.00000
    O          3.88141       -0.50183        0.00000
    O          0.58407       -3.59010       -0.00000

